MODEL 1
REMARK VINA RESULT:    -6.410      0.000      0.000
REMARK INTER + INTRA:          -7.124
REMARK INTER:                  -7.159
REMARK INTRA:                   0.035
REMARK UNBOUND:                 0.035
REMARK  2 active torsions:
REMARK  status: ('A' for Active; 'I' for Inactive)
REMARK    1  A    between atoms: S1_2  and  N4_4 
REMARK    2  A    between atoms: S1_2  and  C5_11 
ROOT
ATOM      1  O1  M77 X   1       6.825   2.705  -1.861  0.00  0.00    -0.200 OA
ATOM      2  S1  M77 X   1       5.434   2.960  -1.721  0.00  0.00     0.261 S 
ATOM      3  O2  M77 X   1       4.915   4.031  -0.944  0.00  0.00    -0.200 OA
ENDROOT
BRANCH   2   4
ATOM      4  N4  M77 X   1       4.840   3.164  -3.254  0.00  0.00    -0.305 N 
ATOM      5  C22 M77 X   1       3.562   3.918  -3.483  0.00  0.00     0.163 C 
ATOM      6  C21 M77 X   1       3.919   5.162  -4.175  0.00  0.00     0.252 C 
ATOM      7  N17 M77 X   1       4.619   4.969  -5.443  0.00  0.00    -0.074 N 
ATOM      8  H17 M77 X   1       4.359   4.092  -5.870  0.00  0.00     0.277 HD
ATOM      9 2H17 M77 X   1       4.398   5.729  -6.071  0.00  0.00     0.277 HD
ATOM     10  C16 M77 X   1       6.025   4.995  -5.131  0.00  0.00     0.234 C 
ATOM     11  C20 M77 X   1       6.583   3.552  -5.052  0.00  0.00     0.048 C 
ATOM     12  C15 M77 X   1       5.542   2.628  -4.386  0.00  0.00     0.137 C 
ENDBRANCH   2   4
BRANCH   2  13
ATOM     13  C5  M77 X   1       4.720   1.484  -1.077  0.00  0.00     0.090 A 
ATOM     14  C6  M77 X   1       4.048   0.632  -1.899  0.00  0.00     0.026 A 
ATOM     15  C7  M77 X   1       3.476  -0.541  -1.406  0.00  0.00     0.002 A 
ATOM     16  C8  M77 X   1       3.571  -0.869  -0.088  0.00  0.00     0.014 A 
ATOM     17  C9  M77 X   1       4.256  -0.014   0.790  0.00  0.00    -0.007 A 
ATOM     18  C10 M77 X   1       4.844   1.176   0.285  0.00  0.00     0.000 A 
ATOM     19  C14 M77 X   1       4.388  -0.300   2.158  0.00  0.00     0.128 A 
ATOM     20  C11 M77 X   1       5.530   2.012   1.184  0.00  0.00     0.033 A 
ATOM     21  C12 M77 X   1       5.606   1.642   2.494  0.00  0.00     0.117 A 
ATOM     22  N13 M77 X   1       5.038   0.530   2.940  0.00  0.00    -0.272 NA
ENDBRANCH   2  13
TORSDOF 2
ENDMDL
MODEL 2
REMARK VINA RESULT:    -6.218      1.558      2.927
REMARK INTER + INTRA:          -6.909
REMARK INTER:                  -6.913
REMARK INTRA:                   0.003
REMARK UNBOUND:                 0.035
REMARK  2 active torsions:
REMARK  status: ('A' for Active; 'I' for Inactive)
REMARK    1  A    between atoms: S1_2  and  N4_4 
REMARK    2  A    between atoms: S1_2  and  C5_11 
ROOT
ATOM      1  O1  M77 X   1       3.134   2.655  -2.608  0.00  0.00    -0.200 OA
ATOM      2  S1  M77 X   1       4.504   2.333  -2.417  0.00  0.00     0.261 S 
ATOM      3  O2  M77 X   1       5.167   1.302  -3.137  0.00  0.00    -0.200 OA
ENDROOT
BRANCH   2   4
ATOM      4  N4  M77 X   1       5.356   3.725  -2.703  0.00  0.00    -0.305 N 
ATOM      5  C22 M77 X   1       6.847   3.685  -2.879  0.00  0.00     0.163 C 
ATOM      6  C21 M77 X   1       7.120   4.021  -4.281  0.00  0.00     0.252 C 
ATOM      7  N17 M77 X   1       6.602   5.321  -4.703  0.00  0.00    -0.074 N 
ATOM      8  H17 M77 X   1       6.556   5.962  -3.925  0.00  0.00     0.277 HD
ATOM      9 2H17 M77 X   1       7.199   5.705  -5.422  0.00  0.00     0.277 HD
ATOM     10  C16 M77 X   1       5.292   5.071  -5.245  0.00  0.00     0.234 C 
ATOM     11  C20 M77 X   1       4.203   5.416  -4.199  0.00  0.00     0.048 C 
ATOM     12  C15 M77 X   1       4.680   4.989  -2.794  0.00  0.00     0.137 C 
ENDBRANCH   2   4
BRANCH   2  13
ATOM     13  C5  M77 X   1       4.692   1.948  -0.708  0.00  0.00     0.090 A 
ATOM     14  C6  M77 X   1       5.287   2.838   0.134  0.00  0.00     0.026 A 
ATOM     15  C7  M77 X   1       5.445   2.550   1.489  0.00  0.00     0.002 A 
ATOM     16  C8  M77 X   1       5.009   1.371   2.012  0.00  0.00     0.014 A 
ATOM     17  C9  M77 X   1       4.391   0.428   1.174  0.00  0.00    -0.007 A 
ATOM     18  C10 M77 X   1       4.225   0.726  -0.204  0.00  0.00     0.000 A 
ATOM     19  C14 M77 X   1       3.920  -0.803   1.656  0.00  0.00     0.128 A 
ATOM     20  C11 M77 X   1       3.598  -0.232  -1.021  0.00  0.00     0.033 A 
ATOM     21  C12 M77 X   1       3.171  -1.395  -0.455  0.00  0.00     0.117 A 
ATOM     22  N13 M77 X   1       3.349  -1.652   0.834  0.00  0.00    -0.272 NA
ENDBRANCH   2  13
TORSDOF 2
ENDMDL
MODEL 3
REMARK VINA RESULT:    -6.206      3.165      5.056
REMARK INTER + INTRA:          -6.897
REMARK INTER:                  -7.087
REMARK INTRA:                   0.191
REMARK UNBOUND:                 0.035
REMARK  2 active torsions:
REMARK  status: ('A' for Active; 'I' for Inactive)
REMARK    1  A    between atoms: S1_2  and  N4_4 
REMARK    2  A    between atoms: S1_2  and  C5_11 
ROOT
ATOM      1  O1  M77 X   1       7.118   3.440   0.353  0.00  0.00    -0.200 OA
ATOM      2  S1  M77 X   1       6.305   2.540   1.092  0.00  0.00     0.261 S 
ATOM      3  O2  M77 X   1       6.833   1.599   2.018  0.00  0.00    -0.200 OA
ENDROOT
BRANCH   2   4
ATOM      4  N4  M77 X   1       5.226   3.470   1.936  0.00  0.00    -0.305 N 
ATOM      5  C22 M77 X   1       3.965   3.960   1.282  0.00  0.00     0.163 C 
ATOM      6  C21 M77 X   1       2.850   3.261   1.931  0.00  0.00     0.252 C 
ATOM      7  N17 M77 X   1       2.772   3.459   3.377  0.00  0.00    -0.074 N 
ATOM      8  H17 M77 X   1       3.164   4.351   3.642  0.00  0.00     0.277 HD
ATOM      9 2H17 M77 X   1       1.807   3.413   3.673  0.00  0.00     0.277 HD
ATOM     10  C16 M77 X   1       3.510   2.374   3.969  0.00  0.00     0.234 C 
ATOM     11  C20 M77 X   1       4.928   2.849   4.375  0.00  0.00     0.048 C 
ATOM     12  C15 M77 X   1       5.476   3.818   3.307  0.00  0.00     0.137 C 
ENDBRANCH   2   4
BRANCH   2  13
ATOM     13  C5  M77 X   1       5.385   1.614  -0.090  0.00  0.00     0.090 A 
ATOM     14  C6  M77 X   1       5.401   1.972  -1.404  0.00  0.00     0.026 A 
ATOM     15  C7  M77 X   1       4.678   1.251  -2.354  0.00  0.00     0.002 A 
ATOM     16  C8  M77 X   1       3.935   0.168  -1.997  0.00  0.00     0.014 A 
ATOM     17  C9  M77 X   1       3.894  -0.231  -0.651  0.00  0.00    -0.007 A 
ATOM     18  C10 M77 X   1       4.635   0.500   0.313  0.00  0.00     0.000 A 
ATOM     19  C14 M77 X   1       3.146  -1.340  -0.225  0.00  0.00     0.128 A 
ATOM     20  C11 M77 X   1       4.583   0.077   1.653  0.00  0.00     0.033 A 
ATOM     21  C12 M77 X   1       3.831  -1.016   1.965  0.00  0.00     0.117 A 
ATOM     22  N13 M77 X   1       3.139  -1.674   1.045  0.00  0.00    -0.272 NA
ENDBRANCH   2  13
TORSDOF 2
ENDMDL
MODEL 4
REMARK VINA RESULT:    -6.143      2.905      5.082
REMARK INTER + INTRA:          -6.826
REMARK INTER:                  -6.846
REMARK INTRA:                   0.021
REMARK UNBOUND:                 0.035
REMARK  2 active torsions:
REMARK  status: ('A' for Active; 'I' for Inactive)
REMARK    1  A    between atoms: S1_2  and  N4_4 
REMARK    2  A    between atoms: S1_2  and  C5_11 
ROOT
ATOM      1  O1  M77 X   1       7.282   2.318   1.156  0.00  0.00    -0.200 OA
ATOM      2  S1  M77 X   1       6.391   2.092   2.239  0.00  0.00     0.261 S 
ATOM      3  O2  M77 X   1       6.824   1.665   3.524  0.00  0.00    -0.200 OA
ENDROOT
BRANCH   2   4
ATOM      4  N4  M77 X   1       5.567   3.509   2.471  0.00  0.00    -0.305 N 
ATOM      5  C22 M77 X   1       5.733   4.654   1.514  0.00  0.00     0.163 C 
ATOM      6  C21 M77 X   1       4.458   4.806   0.804  0.00  0.00     0.252 C 
ATOM      7  N17 M77 X   1       3.307   5.045   1.672  0.00  0.00    -0.074 N 
ATOM      8  H17 M77 X   1       3.586   5.512   2.522  0.00  0.00     0.277 HD
ATOM      9 2H17 M77 X   1       2.626   5.609   1.184  0.00  0.00     0.277 HD
ATOM     10  C16 M77 X   1       2.746   3.749   1.957  0.00  0.00     0.234 C 
ATOM     11  C20 M77 X   1       3.204   3.261   3.353  0.00  0.00     0.048 C 
ATOM     12  C15 M77 X   1       4.676   3.662   3.587  0.00  0.00     0.137 C 
ENDBRANCH   2   4
BRANCH   2  13
ATOM     13  C5  M77 X   1       5.225   0.894   1.682  0.00  0.00     0.090 A 
ATOM     14  C6  M77 X   1       4.650   0.033   2.568  0.00  0.00     0.026 A 
ATOM     15  C7  M77 X   1       3.726  -0.921   2.144  0.00  0.00     0.002 A 
ATOM     16  C8  M77 X   1       3.371  -1.023   0.834  0.00  0.00     0.014 A 
ATOM     17  C9  M77 X   1       3.944  -0.153  -0.108  0.00  0.00    -0.007 A 
ATOM     18  C10 M77 X   1       4.879   0.822   0.326  0.00  0.00     0.000 A 
ATOM     19  C14 M77 X   1       3.615  -0.210  -1.472  0.00  0.00     0.128 A 
ATOM     20  C11 M77 X   1       5.434   1.686  -0.636  0.00  0.00     0.033 A 
ATOM     21  C12 M77 X   1       5.045   1.553  -1.936  0.00  0.00     0.117 A 
ATOM     22  N13 M77 X   1       4.177   0.625  -2.315  0.00  0.00    -0.272 NA
ENDBRANCH   2  13
TORSDOF 2
ENDMDL
MODEL 5
REMARK VINA RESULT:    -6.030      3.520      5.776
REMARK INTER + INTRA:          -6.699
REMARK INTER:                  -6.750
REMARK INTRA:                   0.051
REMARK UNBOUND:                 0.035
REMARK  2 active torsions:
REMARK  status: ('A' for Active; 'I' for Inactive)
REMARK    1  A    between atoms: S1_2  and  N4_4 
REMARK    2  A    between atoms: S1_2  and  C5_11 
ROOT
ATOM      1  O1  M77 X   1       5.768   4.361   2.029  0.00  0.00    -0.200 OA
ATOM      2  S1  M77 X   1       5.418   3.018   2.331  0.00  0.00     0.261 S 
ATOM      3  O2  M77 X   1       6.257   2.146   3.077  0.00  0.00    -0.200 OA
ENDROOT
BRANCH   2   4
ATOM      4  N4  M77 X   1       3.974   3.082   3.140  0.00  0.00    -0.305 N 
ATOM      5  C22 M77 X   1       3.888   2.674   4.583  0.00  0.00     0.163 C 
ATOM      6  C21 M77 X   1       3.612   3.891   5.355  0.00  0.00     0.252 C 
ATOM      7  N17 M77 X   1       2.392   4.592   4.961  0.00  0.00    -0.074 N 
ATOM      8  H17 M77 X   1       1.713   3.951   4.578  0.00  0.00     0.277 HD
ATOM      9 2H17 M77 X   1       1.997   5.062   5.764  0.00  0.00     0.277 HD
ATOM     10  C16 M77 X   1       2.791   5.567   3.979  0.00  0.00     0.234 C 
ATOM     11  C20 M77 X   1       2.486   5.048   2.552  0.00  0.00     0.048 C 
ATOM     12  C15 M77 X   1       2.784   3.535   2.475  0.00  0.00     0.137 C 
ENDBRANCH   2   4
BRANCH   2  13
ATOM     13  C5  M77 X   1       5.118   2.221   0.789  0.00  0.00     0.090 A 
ATOM     14  C6  M77 X   1       5.412   2.857  -0.379  0.00  0.00     0.026 A 
ATOM     15  C7  M77 X   1       5.181   2.242  -1.609  0.00  0.00     0.002 A 
ATOM     16  C8  M77 X   1       4.653   0.989  -1.680  0.00  0.00     0.014 A 
ATOM     17  C9  M77 X   1       4.336   0.303  -0.497  0.00  0.00    -0.007 A 
ATOM     18  C10 M77 X   1       4.578   0.928   0.755  0.00  0.00     0.000 A 
ATOM     19  C14 M77 X   1       3.791  -0.991  -0.507  0.00  0.00     0.128 A 
ATOM     20  C11 M77 X   1       4.258   0.218   1.926  0.00  0.00     0.033 A 
ATOM     21  C12 M77 X   1       3.738  -1.036   1.809  0.00  0.00     0.117 A 
ATOM     22  N13 M77 X   1       3.511  -1.591   0.626  0.00  0.00    -0.272 NA
ENDBRANCH   2  13
TORSDOF 2
ENDMDL
MODEL 6
REMARK VINA RESULT:    -6.026      2.120      2.846
REMARK INTER + INTRA:          -6.696
REMARK INTER:                  -6.901
REMARK INTRA:                   0.206
REMARK UNBOUND:                 0.035
REMARK  2 active torsions:
REMARK  status: ('A' for Active; 'I' for Inactive)
REMARK    1  A    between atoms: S1_2  and  N4_4 
REMARK    2  A    between atoms: S1_2  and  C5_11 
ROOT
ATOM      1  O1  M77 X   1       2.502   2.100  -1.964  0.00  0.00    -0.200 OA
ATOM      2  S1  M77 X   1       3.808   1.576  -1.772  0.00  0.00     0.261 S 
ATOM      3  O2  M77 X   1       4.420   0.667  -2.678  0.00  0.00    -0.200 OA
ENDROOT
BRANCH   2   4
ATOM      4  N4  M77 X   1       4.823   2.879  -1.660  0.00  0.00    -0.305 N 
ATOM      5  C22 M77 X   1       6.235   2.707  -1.179  0.00  0.00     0.163 C 
ATOM      6  C21 M77 X   1       7.112   2.969  -2.327  0.00  0.00     0.252 C 
ATOM      7  N17 M77 X   1       6.945   4.292  -2.926  0.00  0.00    -0.074 N 
ATOM      8  H17 M77 X   1       6.629   4.962  -2.240  0.00  0.00     0.277 HD
ATOM      9 2H17 M77 X   1       7.824   4.599  -3.318  0.00  0.00     0.277 HD
ATOM     10  C16 M77 X   1       5.976   4.134  -3.978  0.00  0.00     0.234 C 
ATOM     11  C20 M77 X   1       4.581   4.607  -3.499  0.00  0.00     0.048 C 
ATOM     12  C15 M77 X   1       4.370   4.191  -2.027  0.00  0.00     0.137 C 
ENDBRANCH   2   4
BRANCH   2  13
ATOM     13  C5  M77 X   1       3.800   0.783  -0.199  0.00  0.00     0.090 A 
ATOM     14  C6  M77 X   1       4.040  -0.555  -0.105  0.00  0.00     0.026 A 
ATOM     15  C7  M77 X   1       4.038  -1.199   1.133  0.00  0.00     0.002 A 
ATOM     16  C8  M77 X   1       3.794  -0.512   2.282  0.00  0.00     0.014 A 
ATOM     17  C9  M77 X   1       3.541   0.868   2.223  0.00  0.00    -0.007 A 
ATOM     18  C10 M77 X   1       3.551   1.524   0.964  0.00  0.00     0.000 A 
ATOM     19  C14 M77 X   1       3.284   1.629   3.375  0.00  0.00     0.128 A 
ATOM     20  C11 M77 X   1       3.300   2.908   0.933  0.00  0.00     0.033 A 
ATOM     21  C12 M77 X   1       3.067   3.557   2.108  0.00  0.00     0.117 A 
ATOM     22  N13 M77 X   1       3.053   2.917   3.269  0.00  0.00    -0.272 NA
ENDBRANCH   2  13
TORSDOF 2
ENDMDL
MODEL 7
REMARK VINA RESULT:    -5.922      3.004      6.200
REMARK INTER + INTRA:          -6.579
REMARK INTER:                  -6.594
REMARK INTRA:                   0.015
REMARK UNBOUND:                 0.035
REMARK  2 active torsions:
REMARK  status: ('A' for Active; 'I' for Inactive)
REMARK    1  A    between atoms: S1_2  and  N4_4 
REMARK    2  A    between atoms: S1_2  and  C5_11 
ROOT
ATOM      1  O1  M77 X   1       3.186   1.464   4.045  0.00  0.00    -0.200 OA
ATOM      2  S1  M77 X   1       3.568   2.153   2.863  0.00  0.00     0.261 S 
ATOM      3  O2  M77 X   1       2.810   3.219   2.306  0.00  0.00    -0.200 OA
ENDROOT
BRANCH   2   4
ATOM      4  N4  M77 X   1       5.085   2.754   3.142  0.00  0.00    -0.305 N 
ATOM      5  C22 M77 X   1       5.282   4.205   3.480  0.00  0.00     0.163 C 
ATOM      6  C21 M77 X   1       5.729   4.261   4.876  0.00  0.00     0.252 C 
ATOM      7  N17 M77 X   1       6.955   3.514   5.148  0.00  0.00    -0.074 N 
ATOM      8  H17 M77 X   1       7.540   3.467   4.327  0.00  0.00     0.277 HD
ATOM      9 2H17 M77 X   1       7.463   3.960   5.899  0.00  0.00     0.277 HD
ATOM     10  C16 M77 X   1       6.539   2.199   5.562  0.00  0.00     0.234 C 
ATOM     11  C20 M77 X   1       6.659   1.202   4.383  0.00  0.00     0.048 C 
ATOM     12  C15 M77 X   1       6.235   1.897   3.071  0.00  0.00     0.137 C 
ENDBRANCH   2   4
BRANCH   2  13
ATOM     13  C5  M77 X   1       3.714   0.932   1.601  0.00  0.00     0.090 A 
ATOM     14  C6  M77 X   1       3.604  -0.390   1.910  0.00  0.00     0.026 A 
ATOM     15  C7  M77 X   1       3.718  -1.369   0.923  0.00  0.00     0.002 A 
ATOM     16  C8  M77 X   1       3.941  -1.035  -0.377  0.00  0.00     0.014 A 
ATOM     17  C9  M77 X   1       4.060   0.319  -0.733  0.00  0.00    -0.007 A 
ATOM     18  C10 M77 X   1       3.938   1.315   0.271  0.00  0.00     0.000 A 
ATOM     19  C14 M77 X   1       4.290   0.724  -2.057  0.00  0.00     0.128 A 
ATOM     20  C11 M77 X   1       4.055   2.663  -0.112  0.00  0.00     0.033 A 
ATOM     21  C12 M77 X   1       4.272   2.953  -1.426  0.00  0.00     0.117 A 
ATOM     22  N13 M77 X   1       4.393   2.002  -2.341  0.00  0.00    -0.272 NA
ENDBRANCH   2  13
TORSDOF 2
ENDMDL
MODEL 8
REMARK VINA RESULT:    -5.904      2.692      5.625
REMARK INTER + INTRA:          -6.559
REMARK INTER:                  -6.600
REMARK INTRA:                   0.041
REMARK UNBOUND:                 0.035
REMARK  2 active torsions:
REMARK  status: ('A' for Active; 'I' for Inactive)
REMARK    1  A    between atoms: S1_2  and  N4_4 
REMARK    2  A    between atoms: S1_2  and  C5_11 
ROOT
ATOM      1  O1  M77 X   1       7.035   1.706   1.700  0.00  0.00    -0.200 OA
ATOM      2  S1  M77 X   1       5.641   1.547   1.926  0.00  0.00     0.261 S 
ATOM      3  O2  M77 X   1       5.110   0.721   2.954  0.00  0.00    -0.200 OA
ENDROOT
BRANCH   2   4
ATOM      4  N4  M77 X   1       5.034   3.066   2.187  0.00  0.00    -0.305 N 
ATOM      5  C22 M77 X   1       3.640   3.416   1.752  0.00  0.00     0.163 C 
ATOM      6  C21 M77 X   1       2.850   3.617   2.973  0.00  0.00     0.252 C 
ATOM      7  N17 M77 X   1       3.370   4.650   3.866  0.00  0.00    -0.074 N 
ATOM      8  H17 M77 X   1       3.874   5.355   3.349  0.00  0.00     0.277 HD
ATOM      9 2H17 M77 X   1       2.605   5.081   4.366  0.00  0.00     0.277 HD
ATOM     10  C16 M77 X   1       4.236   3.975   4.797  0.00  0.00     0.234 C 
ATOM     11  C20 M77 X   1       5.716   4.148   4.376  0.00  0.00     0.048 C 
ATOM     12  C15 M77 X   1       5.830   4.068   2.839  0.00  0.00     0.137 C 
ENDBRANCH   2   4
BRANCH   2  13
ATOM     13  C5  M77 X   1       4.954   0.963   0.413  0.00  0.00     0.090 A 
ATOM     14  C6  M77 X   1       4.088  -0.088   0.413  0.00  0.00     0.026 A 
ATOM     15  C7  M77 X   1       3.535  -0.564  -0.776  0.00  0.00     0.002 A 
ATOM     16  C8  M77 X   1       3.845   0.007  -1.972  0.00  0.00     0.014 A 
ATOM     17  C9  M77 X   1       4.735   1.092  -2.012  0.00  0.00    -0.007 A 
ATOM     18  C10 M77 X   1       5.292   1.580  -0.801  0.00  0.00     0.000 A 
ATOM     19  C14 M77 X   1       5.091   1.721  -3.216  0.00  0.00     0.128 A 
ATOM     20  C11 M77 X   1       6.176   2.671  -0.867  0.00  0.00     0.033 A 
ATOM     21  C12 M77 X   1       6.453   3.216  -2.085  0.00  0.00     0.117 A 
ATOM     22  N13 M77 X   1       5.928   2.733  -3.202  0.00  0.00    -0.272 NA
ENDBRANCH   2  13
TORSDOF 2
ENDMDL
MODEL 9
REMARK VINA RESULT:    -5.847      3.450      5.138
REMARK INTER + INTRA:          -6.496
REMARK INTER:                  -6.483
REMARK INTRA:                  -0.012
REMARK UNBOUND:                 0.035
REMARK  2 active torsions:
REMARK  status: ('A' for Active; 'I' for Inactive)
REMARK    1  A    between atoms: S1_2  and  N4_4 
REMARK    2  A    between atoms: S1_2  and  C5_11 
ROOT
ATOM      1  O1  M77 X   1       3.113   3.161   2.838  0.00  0.00    -0.200 OA
ATOM      2  S1  M77 X   1       4.006   3.750   1.902  0.00  0.00     0.261 S 
ATOM      3  O2  M77 X   1       3.820   5.053   1.365  0.00  0.00    -0.200 OA
ENDROOT
BRANCH   2   4
ATOM      4  N4  M77 X   1       5.500   3.749   2.618  0.00  0.00    -0.305 N 
ATOM      5  C22 M77 X   1       5.695   3.141   3.977  0.00  0.00     0.163 C 
ATOM      6  C21 M77 X   1       6.520   1.942   3.794  0.00  0.00     0.252 C 
ATOM      7  N17 M77 X   1       7.817   2.190   3.167  0.00  0.00    -0.074 N 
ATOM      8  H17 M77 X   1       8.143   3.124   3.367  0.00  0.00     0.277 HD
ATOM      9 2H17 M77 X   1       8.491   1.517   3.505  0.00  0.00     0.277 HD
ATOM     10  C16 M77 X   1       7.619   2.005   1.753  0.00  0.00     0.234 C 
ATOM     11  C20 M77 X   1       7.456   3.376   1.050  0.00  0.00     0.048 C 
ATOM     12  C15 M77 X   1       6.632   4.324   1.946  0.00  0.00     0.137 C 
ENDBRANCH   2   4
BRANCH   2  13
ATOM     13  C5  M77 X   1       4.084   2.650   0.528  0.00  0.00     0.090 A 
ATOM     14  C6  M77 X   1       4.236   3.139  -0.734  0.00  0.00     0.026 A 
ATOM     15  C7  M77 X   1       4.300   2.283  -1.833  0.00  0.00     0.002 A 
ATOM     16  C8  M77 X   1       4.211   0.934  -1.679  0.00  0.00     0.014 A 
ATOM     17  C9  M77 X   1       4.053   0.393  -0.392  0.00  0.00    -0.007 A 
ATOM     18  C10 M77 X   1       3.995   1.265   0.726  0.00  0.00     0.000 A 
ATOM     19  C14 M77 X   1       3.956  -0.990  -0.172  0.00  0.00     0.128 A 
ATOM     20  C11 M77 X   1       3.842   0.698   2.004  0.00  0.00     0.033 A 
ATOM     21  C12 M77 X   1       3.764  -0.658   2.113  0.00  0.00     0.117 A 
ATOM     22  N13 M77 X   1       3.809  -1.449   1.050  0.00  0.00    -0.272 NA
ENDBRANCH   2  13
TORSDOF 2
ENDMDL
