MODEL 1
REMARK VINA RESULT:    -4.974      0.000      0.000
REMARK INTER + INTRA:          -5.508
REMARK INTER:                  -5.556
REMARK INTRA:                   0.047
REMARK UNBOUND:                 0.047
REMARK  2 active torsions:
REMARK  status: ('A' for Active; 'I' for Inactive)
REMARK    1  A    between atoms: S1_2  and  N4_4 
REMARK    2  A    between atoms: S1_2  and  C5_11 
ROOT
ATOM      1  O1  M77 X   1      25.522   0.332 -32.456  0.00  0.00    -0.200 OA
ATOM      2  S1  M77 X   1      26.855   0.027 -32.071  0.00  0.00     0.261 S 
ATOM      3  O2  M77 X   1      27.992   0.440 -32.817  0.00  0.00    -0.200 OA
ENDROOT
BRANCH   2   4
ATOM      4  N4  M77 X   1      27.051   0.637 -30.544  0.00  0.00    -0.305 N 
ATOM      5  C22 M77 X   1      28.414   0.699 -29.916  0.00  0.00     0.163 C 
ATOM      6  C21 M77 X   1      28.768   2.119 -29.807  0.00  0.00     0.252 C 
ATOM      7  N17 M77 X   1      27.823   2.920 -29.031  0.00  0.00    -0.074 N 
ATOM      8  H17 M77 X   1      27.359   2.356 -28.334  0.00  0.00     0.277 HD
ATOM      9 2H17 M77 X   1      28.314   3.679 -28.579  0.00  0.00     0.277 HD
ATOM     10  C16 M77 X   1      26.879   3.452 -29.978  0.00  0.00     0.234 C 
ATOM     11  C20 M77 X   1      25.576   2.614 -29.965  0.00  0.00     0.048 C 
ATOM     12  C15 M77 X   1      25.922   1.119 -29.800  0.00  0.00     0.137 C 
ENDBRANCH   2   4
BRANCH   2  13
ATOM     13  C5  M77 X   1      26.949  -1.728 -31.950  0.00  0.00     0.090 A 
ATOM     14  C6  M77 X   1      26.829  -2.339 -30.738  0.00  0.00     0.026 A 
ATOM     15  C7  M77 X   1      26.902  -3.727 -30.624  0.00  0.00     0.002 A 
ATOM     16  C8  M77 X   1      27.094  -4.513 -31.718  0.00  0.00     0.014 A 
ATOM     17  C9  M77 X   1      27.222  -3.919 -32.984  0.00  0.00    -0.007 A 
ATOM     18  C10 M77 X   1      27.142  -2.506 -33.100  0.00  0.00     0.000 A 
ATOM     19  C14 M77 X   1      27.422  -4.678 -34.147  0.00  0.00     0.128 A 
ATOM     20  C11 M77 X   1      27.268  -1.936 -34.379  0.00  0.00     0.033 A 
ATOM     21  C12 M77 X   1      27.453  -2.761 -35.448  0.00  0.00     0.117 A 
ATOM     22  N13 M77 X   1      27.536  -4.077 -35.309  0.00  0.00    -0.272 NA
ENDBRANCH   2  13
TORSDOF 2
ENDMDL
MODEL 2
REMARK VINA RESULT:    -4.863      1.070      1.214
REMARK INTER + INTRA:          -5.385
REMARK INTER:                  -5.462
REMARK INTRA:                   0.078
REMARK UNBOUND:                 0.047
REMARK  2 active torsions:
REMARK  status: ('A' for Active; 'I' for Inactive)
REMARK    1  A    between atoms: S1_2  and  N4_4 
REMARK    2  A    between atoms: S1_2  and  C5_11 
ROOT
ATOM      1  O1  M77 X   1      26.017   1.014 -33.205  0.00  0.00    -0.200 OA
ATOM      2  S1  M77 X   1      26.954   0.695 -32.186  0.00  0.00     0.261 S 
ATOM      3  O2  M77 X   1      28.310   1.119 -32.217  0.00  0.00    -0.200 OA
ENDROOT
BRANCH   2   4
ATOM      4  N4  M77 X   1      26.317   1.269 -30.769  0.00  0.00    -0.305 N 
ATOM      5  C22 M77 X   1      27.215   1.773 -29.677  0.00  0.00     0.163 C 
ATOM      6  C21 M77 X   1      27.000   3.222 -29.583  0.00  0.00     0.252 C 
ATOM      7  N17 M77 X   1      25.618   3.611 -29.312  0.00  0.00    -0.074 N 
ATOM      8  H17 M77 X   1      25.135   2.892 -28.793  0.00  0.00     0.277 HD
ATOM      9 2H17 M77 X   1      25.606   4.473 -28.785  0.00  0.00     0.277 HD
ATOM     10  C16 M77 X   1      25.003   3.822 -30.596  0.00  0.00     0.234 C 
ATOM     11  C20 M77 X   1      24.163   2.585 -31.000  0.00  0.00     0.048 C 
ATOM     12  C15 M77 X   1      24.895   1.298 -30.566  0.00  0.00     0.137 C 
ENDBRANCH   2   4
BRANCH   2  13
ATOM     13  C5  M77 X   1      26.985  -1.063 -32.070  0.00  0.00     0.090 A 
ATOM     14  C6  M77 X   1      26.814  -1.674 -30.865  0.00  0.00     0.026 A 
ATOM     15  C7  M77 X   1      26.836  -3.064 -30.756  0.00  0.00     0.002 A 
ATOM     16  C8  M77 X   1      27.030  -3.852 -31.848  0.00  0.00     0.014 A 
ATOM     17  C9  M77 X   1      27.211  -3.258 -33.108  0.00  0.00    -0.007 A 
ATOM     18  C10 M77 X   1      27.181  -1.843 -33.219  0.00  0.00     0.000 A 
ATOM     19  C14 M77 X   1      27.413  -4.019 -34.270  0.00  0.00     0.128 A 
ATOM     20  C11 M77 X   1      27.359  -1.272 -34.492  0.00  0.00     0.033 A 
ATOM     21  C12 M77 X   1      27.543  -2.099 -35.559  0.00  0.00     0.117 A 
ATOM     22  N13 M77 X   1      27.578  -3.417 -35.425  0.00  0.00    -0.272 NA
ENDBRANCH   2  13
TORSDOF 2
ENDMDL
MODEL 3
REMARK VINA RESULT:    -4.721      1.817      3.195
REMARK INTER + INTRA:          -5.226
REMARK INTER:                  -5.272
REMARK INTRA:                   0.046
REMARK UNBOUND:                 0.047
REMARK  2 active torsions:
REMARK  status: ('A' for Active; 'I' for Inactive)
REMARK    1  A    between atoms: S1_2  and  N4_4 
REMARK    2  A    between atoms: S1_2  and  C5_11 
ROOT
ATOM      1  O1  M77 X   1      28.280   0.614 -29.865  0.00  0.00    -0.200 OA
ATOM      2  S1  M77 X   1      27.005   0.584 -30.490  0.00  0.00     0.261 S 
ATOM      3  O2  M77 X   1      25.822   0.162 -29.823  0.00  0.00    -0.200 OA
ENDROOT
BRANCH   2   4
ATOM      4  N4  M77 X   1      26.712   2.122 -31.031  0.00  0.00    -0.305 N 
ATOM      5  C22 M77 X   1      25.324   2.544 -31.419  0.00  0.00     0.163 C 
ATOM      6  C21 M77 X   1      24.883   3.527 -30.422  0.00  0.00     0.252 C 
ATOM      7  N17 M77 X   1      25.748   4.700 -30.306  0.00  0.00    -0.074 N 
ATOM      8  H17 M77 X   1      26.217   4.891 -31.179  0.00  0.00     0.277 HD
ATOM      9 2H17 M77 X   1      25.196   5.502 -30.036  0.00  0.00     0.277 HD
ATOM     10  C16 M77 X   1      26.697   4.395 -29.267  0.00  0.00     0.234 C 
ATOM     11  C20 M77 X   1      28.045   3.948 -29.885  0.00  0.00     0.048 C 
ATOM     12  C15 M77 X   1      27.781   3.076 -31.131  0.00  0.00     0.137 C 
ENDBRANCH   2   4
BRANCH   2  13
ATOM     13  C5  M77 X   1      27.170  -0.446 -31.910  0.00  0.00     0.090 A 
ATOM     14  C6  M77 X   1      27.370   0.107 -33.139  0.00  0.00     0.026 A 
ATOM     15  C7  M77 X   1      27.503  -0.693 -34.273  0.00  0.00     0.002 A 
ATOM     16  C8  M77 X   1      27.436  -2.050 -34.188  0.00  0.00     0.014 A 
ATOM     17  C9  M77 X   1      27.230  -2.656 -32.938  0.00  0.00    -0.007 A 
ATOM     18  C10 M77 X   1      27.102  -1.840 -31.783  0.00  0.00     0.000 A 
ATOM     19  C14 M77 X   1      27.153  -4.050 -32.788  0.00  0.00     0.128 A 
ATOM     20  C11 M77 X   1      26.902  -2.472 -30.542  0.00  0.00     0.033 A 
ATOM     21  C12 M77 X   1      26.848  -3.833 -30.502  0.00  0.00     0.117 A 
ATOM     22  N13 M77 X   1      26.960  -4.569 -31.598  0.00  0.00    -0.272 NA
ENDBRANCH   2  13
TORSDOF 2
ENDMDL
MODEL 4
REMARK VINA RESULT:    -4.561      1.675      2.792
REMARK INTER + INTRA:          -5.047
REMARK INTER:                  -5.295
REMARK INTRA:                   0.248
REMARK UNBOUND:                 0.047
REMARK  2 active torsions:
REMARK  status: ('A' for Active; 'I' for Inactive)
REMARK    1  A    between atoms: S1_2  and  N4_4 
REMARK    2  A    between atoms: S1_2  and  C5_11 
ROOT
ATOM      1  O1  M77 X   1      25.860   0.323 -31.106  0.00  0.00    -0.200 OA
ATOM      2  S1  M77 X   1      26.741   0.602 -32.185  0.00  0.00     0.261 S 
ATOM      3  O2  M77 X   1      26.453   1.562 -33.194  0.00  0.00    -0.200 OA
ENDROOT
BRANCH   2   4
ATOM      4  N4  M77 X   1      28.182   1.056 -31.507  0.00  0.00    -0.305 N 
ATOM      5  C22 M77 X   1      29.308   1.552 -32.367  0.00  0.00     0.163 C 
ATOM      6  C21 M77 X   1      29.481   2.977 -32.062  0.00  0.00     0.252 C 
ATOM      7  N17 M77 X   1      29.762   3.265 -30.657  0.00  0.00    -0.074 N 
ATOM      8  H17 M77 X   1      30.235   2.490 -30.216  0.00  0.00     0.277 HD
ATOM      9 2H17 M77 X   1      30.336   4.094 -30.589  0.00  0.00     0.277 HD
ATOM     10  C16 M77 X   1      28.485   3.510 -30.038  0.00  0.00     0.234 C 
ATOM     11  C20 M77 X   1      28.006   2.249 -29.277  0.00  0.00     0.048 C 
ATOM     12  C15 M77 X   1      28.373   0.986 -30.085  0.00  0.00     0.137 C 
ENDBRANCH   2   4
BRANCH   2  13
ATOM     13  C5  M77 X   1      27.013  -0.928 -33.015  0.00  0.00     0.090 A 
ATOM     14  C6  M77 X   1      27.242  -0.948 -34.358  0.00  0.00     0.026 A 
ATOM     15  C7  M77 X   1      27.459  -2.150 -35.031  0.00  0.00     0.002 A 
ATOM     16  C8  M77 X   1      27.447  -3.339 -34.368  0.00  0.00     0.014 A 
ATOM     17  C9  M77 X   1      27.213  -3.357 -32.984  0.00  0.00    -0.007 A 
ATOM     18  C10 M77 X   1      26.999  -2.133 -32.299  0.00  0.00     0.000 A 
ATOM     19  C14 M77 X   1      27.190  -4.552 -32.247  0.00  0.00     0.128 A 
ATOM     20  C11 M77 X   1      26.773  -2.177 -30.911  0.00  0.00     0.033 A 
ATOM     21  C12 M77 X   1      26.776  -3.389 -30.287  0.00  0.00     0.117 A 
ATOM     22  N13 M77 X   1      26.968  -4.518 -30.954  0.00  0.00    -0.272 NA
ENDBRANCH   2  13
TORSDOF 2
ENDMDL
MODEL 5
REMARK VINA RESULT:    -4.536      2.133      2.945
REMARK INTER + INTRA:          -5.019
REMARK INTER:                  -5.014
REMARK INTRA:                  -0.005
REMARK UNBOUND:                 0.047
REMARK  2 active torsions:
REMARK  status: ('A' for Active; 'I' for Inactive)
REMARK    1  A    between atoms: S1_2  and  N4_4 
REMARK    2  A    between atoms: S1_2  and  C5_11 
ROOT
ATOM      1  O1  M77 X   1      29.245   1.765 -31.046  0.00  0.00    -0.200 OA
ATOM      2  S1  M77 X   1      27.988   1.360 -30.522  0.00  0.00     0.261 S 
ATOM      3  O2  M77 X   1      27.761   1.135 -29.137  0.00  0.00    -0.200 OA
ENDROOT
BRANCH   2   4
ATOM      4  N4  M77 X   1      26.893   2.508 -30.996  0.00  0.00    -0.305 N 
ATOM      5  C22 M77 X   1      25.420   2.215 -30.970  0.00  0.00     0.163 C 
ATOM      6  C21 M77 X   1      24.837   3.054 -29.916  0.00  0.00     0.252 C 
ATOM      7  N17 M77 X   1      25.058   4.487 -30.093  0.00  0.00    -0.074 N 
ATOM      8  H17 M77 X   1      25.151   4.721 -31.070  0.00  0.00     0.277 HD
ATOM      9 2H17 M77 X   1      24.284   5.001 -29.695  0.00  0.00     0.277 HD
ATOM     10  C16 M77 X   1      26.265   4.797 -29.371  0.00  0.00     0.234 C 
ATOM     11  C20 M77 X   1      27.465   4.890 -30.345  0.00  0.00     0.048 C 
ATOM     12  C15 M77 X   1      27.335   3.803 -31.433  0.00  0.00     0.137 C 
ENDBRANCH   2   4
BRANCH   2  13
ATOM     13  C5  M77 X   1      27.564  -0.138 -31.346  0.00  0.00     0.090 A 
ATOM     14  C6  M77 X   1      27.154  -1.222 -30.630  0.00  0.00     0.026 A 
ATOM     15  C7  M77 X   1      26.815  -2.416 -31.266  0.00  0.00     0.002 A 
ATOM     16  C8  M77 X   1      26.884  -2.535 -32.620  0.00  0.00     0.014 A 
ATOM     17  C9  M77 X   1      27.303  -1.439 -33.392  0.00  0.00    -0.007 A 
ATOM     18  C10 M77 X   1      27.642  -0.222 -32.744  0.00  0.00     0.000 A 
ATOM     19  C14 M77 X   1      27.393  -1.503 -34.791  0.00  0.00     0.128 A 
ATOM     20  C11 M77 X   1      28.053   0.863 -33.539  0.00  0.00     0.033 A 
ATOM     21  C12 M77 X   1      28.101   0.701 -34.891  0.00  0.00     0.117 A 
ATOM     22  N13 M77 X   1      27.790  -0.451 -35.469  0.00  0.00    -0.272 NA
ENDBRANCH   2  13
TORSDOF 2
ENDMDL
MODEL 6
REMARK VINA RESULT:    -4.502      2.963      6.297
REMARK INTER + INTRA:          -4.981
REMARK INTER:                  -5.054
REMARK INTRA:                   0.074
REMARK UNBOUND:                 0.047
REMARK  2 active torsions:
REMARK  status: ('A' for Active; 'I' for Inactive)
REMARK    1  A    between atoms: S1_2  and  N4_4 
REMARK    2  A    between atoms: S1_2  and  C5_11 
ROOT
ATOM      1  O1  M77 X   1      28.934  -0.110 -35.431  0.00  0.00    -0.200 OA
ATOM      2  S1  M77 X   1      27.621  -0.602 -35.655  0.00  0.00     0.261 S 
ATOM      3  O2  M77 X   1      26.454   0.193 -35.488  0.00  0.00    -0.200 OA
ENDROOT
BRANCH   2   4
ATOM      4  N4  M77 X   1      27.589  -1.156 -37.216  0.00  0.00    -0.305 N 
ATOM      5  C22 M77 X   1      26.323  -1.096 -38.022  0.00  0.00     0.163 C 
ATOM      6  C21 M77 X   1      26.540  -0.106 -39.084  0.00  0.00     0.252 C 
ATOM      7  N17 M77 X   1      27.675  -0.396 -39.957  0.00  0.00    -0.074 N 
ATOM      8  H17 M77 X   1      27.845  -1.389 -40.012  0.00  0.00     0.277 HD
ATOM      9 2H17 M77 X   1      27.491  -0.033 -40.882  0.00  0.00     0.277 HD
ATOM     10  C16 M77 X   1      28.804   0.291 -39.386  0.00  0.00     0.234 C 
ATOM     11  C20 M77 X   1      29.679  -0.696 -38.575  0.00  0.00     0.048 C 
ATOM     12  C15 M77 X   1      28.773  -1.695 -37.823  0.00  0.00     0.137 C 
ENDBRANCH   2   4
BRANCH   2  13
ATOM     13  C5  M77 X   1      27.426  -2.000 -34.601  0.00  0.00     0.090 A 
ATOM     14  C6  M77 X   1      27.434  -3.258 -35.122  0.00  0.00     0.026 A 
ATOM     15  C7  M77 X   1      27.281  -4.376 -34.302  0.00  0.00     0.002 A 
ATOM     16  C8  M77 X   1      27.117  -4.244 -32.958  0.00  0.00     0.014 A 
ATOM     17  C9  M77 X   1      27.102  -2.962 -32.384  0.00  0.00    -0.007 A 
ATOM     18  C10 M77 X   1      27.265  -1.826 -33.219  0.00  0.00     0.000 A 
ATOM     19  C14 M77 X   1      26.938  -2.764 -31.004  0.00  0.00     0.128 A 
ATOM     20  C11 M77 X   1      27.252  -0.553 -32.620  0.00  0.00     0.033 A 
ATOM     21  C12 M77 X   1      27.092  -0.468 -31.270  0.00  0.00     0.117 A 
ATOM     22  N13 M77 X   1      26.931  -1.546 -30.515  0.00  0.00    -0.272 NA
ENDBRANCH   2  13
TORSDOF 2
ENDMDL
MODEL 7
REMARK VINA RESULT:    -4.454      2.285      3.731
REMARK INTER + INTRA:          -4.927
REMARK INTER:                  -5.086
REMARK INTRA:                   0.159
REMARK UNBOUND:                 0.047
REMARK  2 active torsions:
REMARK  status: ('A' for Active; 'I' for Inactive)
REMARK    1  A    between atoms: S1_2  and  N4_4 
REMARK    2  A    between atoms: S1_2  and  C5_11 
ROOT
ATOM      1  O1  M77 X   1      27.791   1.180 -32.228  0.00  0.00    -0.200 OA
ATOM      2  S1  M77 X   1      27.177   0.131 -31.492  0.00  0.00     0.261 S 
ATOM      3  O2  M77 X   1      27.638  -0.294 -30.216  0.00  0.00    -0.200 OA
ENDROOT
BRANCH   2   4
ATOM      4  N4  M77 X   1      25.591   0.565 -31.295  0.00  0.00    -0.305 N 
ATOM      5  C22 M77 X   1      24.854   1.282 -32.389  0.00  0.00     0.163 C 
ATOM      6  C21 M77 X   1      23.841   0.352 -32.902  0.00  0.00     0.252 C 
ATOM      7  N17 M77 X   1      22.897  -0.128 -31.895  0.00  0.00    -0.074 N 
ATOM      8  H17 M77 X   1      22.777   0.552 -31.158  0.00  0.00     0.277 HD
ATOM      9 2H17 M77 X   1      22.004  -0.315 -32.330  0.00  0.00     0.277 HD
ATOM     10  C16 M77 X   1      23.450  -1.354 -31.381  0.00  0.00     0.234 C 
ATOM     11  C20 M77 X   1      24.158  -1.098 -30.028  0.00  0.00     0.048 C 
ATOM     12  C15 M77 X   1      24.896   0.257 -30.077  0.00  0.00     0.137 C 
ENDBRANCH   2   4
BRANCH   2  13
ATOM     13  C5  M77 X   1      27.205  -1.291 -32.531  0.00  0.00     0.090 A 
ATOM     14  C6  M77 X   1      27.305  -1.150 -33.882  0.00  0.00     0.026 A 
ATOM     15  C7  M77 X   1      27.328  -2.265 -34.721  0.00  0.00     0.002 A 
ATOM     16  C8  M77 X   1      27.250  -3.526 -34.215  0.00  0.00     0.014 A 
ATOM     17  C9  M77 X   1      27.145  -3.710 -32.826  0.00  0.00    -0.007 A 
ATOM     18  C10 M77 X   1      27.129  -2.575 -31.974  0.00  0.00     0.000 A 
ATOM     19  C14 M77 X   1      27.063  -4.986 -32.247  0.00  0.00     0.128 A 
ATOM     20  C11 M77 X   1      27.029  -2.786 -30.587  0.00  0.00     0.033 A 
ATOM     21  C12 M77 X   1      26.960  -4.065 -30.124  0.00  0.00     0.117 A 
ATOM     22  N13 M77 X   1      26.966  -5.107 -30.943  0.00  0.00    -0.272 NA
ENDBRANCH   2  13
TORSDOF 2
ENDMDL
MODEL 8
REMARK VINA RESULT:    -4.452      2.168      2.890
REMARK INTER + INTRA:          -4.925
REMARK INTER:                  -4.861
REMARK INTRA:                  -0.063
REMARK UNBOUND:                 0.047
REMARK  2 active torsions:
REMARK  status: ('A' for Active; 'I' for Inactive)
REMARK    1  A    between atoms: S1_2  and  N4_4 
REMARK    2  A    between atoms: S1_2  and  C5_11 
ROOT
ATOM      1  O1  M77 X   1      28.298   1.374 -31.642  0.00  0.00    -0.200 OA
ATOM      2  S1  M77 X   1      27.314   0.733 -30.844  0.00  0.00     0.261 S 
ATOM      3  O2  M77 X   1      27.401   0.643 -29.427  0.00  0.00    -0.200 OA
ENDROOT
BRANCH   2   4
ATOM      4  N4  M77 X   1      25.878   1.488 -31.176  0.00  0.00    -0.305 N 
ATOM      5  C22 M77 X   1      25.843   2.713 -32.044  0.00  0.00     0.163 C 
ATOM      6  C21 M77 X   1      25.164   2.334 -33.289  0.00  0.00     0.252 C 
ATOM      7  N17 M77 X   1      23.812   1.813 -33.106  0.00  0.00    -0.074 N 
ATOM      8  H17 M77 X   1      23.384   2.199 -32.277  0.00  0.00     0.277 HD
ATOM      9 2H17 M77 X   1      23.249   2.040 -33.914  0.00  0.00     0.277 HD
ATOM     10  C16 M77 X   1      23.946   0.383 -32.999  0.00  0.00     0.234 C 
ATOM     11  C20 M77 X   1      23.893  -0.052 -31.513  0.00  0.00     0.048 C 
ATOM     12  C15 M77 X   1      24.645   0.979 -30.645  0.00  0.00     0.137 C 
ENDBRANCH   2   4
BRANCH   2  13
ATOM     13  C5  M77 X   1      27.187  -0.919 -31.441  0.00  0.00     0.090 A 
ATOM     14  C6  M77 X   1      26.946  -1.944 -30.576  0.00  0.00     0.026 A 
ATOM     15  C7  M77 X   1      26.842  -3.258 -31.032  0.00  0.00     0.002 A 
ATOM     16  C8  M77 X   1      26.979  -3.557 -32.353  0.00  0.00     0.014 A 
ATOM     17  C9  M77 X   1      27.229  -2.526 -33.274  0.00  0.00    -0.007 A 
ATOM     18  C10 M77 X   1      27.327  -1.188 -32.810  0.00  0.00     0.000 A 
ATOM     19  C14 M77 X   1      27.378  -2.774 -34.647  0.00  0.00     0.128 A 
ATOM     20  C11 M77 X   1      27.572  -0.174 -33.752  0.00  0.00     0.033 A 
ATOM     21  C12 M77 X   1      27.696  -0.517 -35.065  0.00  0.00     0.117 A 
ATOM     22  N13 M77 X   1      27.611  -1.777 -35.469  0.00  0.00    -0.272 NA
ENDBRANCH   2  13
TORSDOF 2
ENDMDL
MODEL 9
REMARK VINA RESULT:    -4.419      3.796      4.868
REMARK INTER + INTRA:          -4.888
REMARK INTER:                  -4.883
REMARK INTRA:                  -0.005
REMARK UNBOUND:                 0.047
REMARK  2 active torsions:
REMARK  status: ('A' for Active; 'I' for Inactive)
REMARK    1  A    between atoms: S1_2  and  N4_4 
REMARK    2  A    between atoms: S1_2  and  C5_11 
ROOT
ATOM      1  O1  M77 X   1      27.733   0.521 -32.204  0.00  0.00    -0.200 OA
ATOM      2  S1  M77 X   1      28.055   1.899 -32.337  0.00  0.00     0.261 S 
ATOM      3  O2  M77 X   1      27.499   2.732 -33.346  0.00  0.00    -0.200 OA
ENDROOT
BRANCH   2   4
ATOM      4  N4  M77 X   1      27.683   2.608 -30.888  0.00  0.00    -0.305 N 
ATOM      5  C22 M77 X   1      27.572   4.101 -30.774  0.00  0.00     0.163 C 
ATOM      6  C21 M77 X   1      26.158   4.406 -30.526  0.00  0.00     0.252 C 
ATOM      7  N17 M77 X   1      25.604   3.772 -29.332  0.00  0.00    -0.074 N 
ATOM      8  H17 M77 X   1      26.320   3.618 -28.638  0.00  0.00     0.277 HD
ATOM      9 2H17 M77 X   1      24.878   4.358 -28.943  0.00  0.00     0.277 HD
ATOM     10  C16 M77 X   1      25.033   2.525 -29.770  0.00  0.00     0.234 C 
ATOM     11  C20 M77 X   1      26.001   1.355 -29.465  0.00  0.00     0.048 C 
ATOM     12  C15 M77 X   1      27.455   1.805 -29.719  0.00  0.00     0.137 C 
ENDBRANCH   2   4
BRANCH   2  13
ATOM     13  C5  M77 X   1      29.805   1.985 -32.528  0.00  0.00     0.090 A 
ATOM     14  C6  M77 X   1      30.576   2.522 -31.541  0.00  0.00     0.026 A 
ATOM     15  C7  M77 X   1      31.962   2.599 -31.676  0.00  0.00     0.002 A 
ATOM     16  C8  M77 X   1      32.586   2.141 -32.795  0.00  0.00     0.014 A 
ATOM     17  C9  M77 X   1      31.823   1.582 -33.834  0.00  0.00    -0.007 A 
ATOM     18  C10 M77 X   1      30.413   1.499 -33.693  0.00  0.00     0.000 A 
ATOM     19  C14 M77 X   1      32.411   1.094 -35.011  0.00  0.00     0.128 A 
ATOM     20  C11 M77 X   1      29.673   0.929 -34.744  0.00  0.00     0.033 A 
ATOM     21  C12 M77 X   1      30.339   0.478 -35.844  0.00  0.00     0.117 A 
ATOM     22  N13 M77 X   1      31.656   0.579 -35.954  0.00  0.00    -0.272 NA
ENDBRANCH   2  13
TORSDOF 2
ENDMDL
