@<TRIPOS>MOLECULE
fasudil.pdb
38 40 1 0 0
SMALL
AMBER ff14SB


@<TRIPOS>ATOM
      1 O1         -0.5780    1.0710   -1.5460 O.2       1 M77   -0.6498
      2 S1         -0.4870    0.6230   -0.2010 S.o2      1 M77    1.5102
      3 O2         -0.3850    1.5080    0.9070 O.2       1 M77   -0.6498
      4 N4         -1.8250   -0.3140    0.0710 N.pl3     1 M77   -0.7945
      5 C22        -2.2710   -0.6200    1.4720 C.3       1 M77    0.2088
      6 C21        -3.5440    0.0810    1.6770 C.3       1 M77    0.0588
      7 N17        -4.5940   -0.2830    0.7280 N.4       1 M77   -0.7510
      8 C16        -4.4980    0.6610   -0.3550 C.3       1 M77    0.1048
      9 C20        -3.7420    0.0310   -1.5510 C.3       1 M77   -0.1444
     10 C15        -2.5820   -0.8430   -1.0290 C.3       1 M77    0.1978
     11 C5          0.9180   -0.4370   -0.1230 C.ar      1 M77   -0.4295
     12 C6          0.7600   -1.7890   -0.1670 C.ar      1 M77    0.0430
     13 C7          1.8610   -2.6430   -0.1060 C.ar      1 M77   -0.1740
     14 C8          3.1260   -2.1520    0.0000 C.ar      1 M77    0.0060
     15 C9          3.3280   -0.7630    0.0490 C.ar      1 M77   -0.2003
     16 C10         2.2070    0.1050   -0.0200 C.ar      1 M77    0.0950
     17 C11         2.4360    1.4920    0.0250 C.ar      1 M77   -0.3083
     18 C14         4.6090   -0.1990    0.1570 C.ar      1 M77    0.4552
     19 N13         4.7470    1.1060    0.1990 N.ar      1 M77   -0.6540
     20 C12         3.7190    1.9400    0.1250 C.ar      1 M77    0.4342
     21 H221       -2.4140   -1.6940    1.5900 H         1 M77    0.0902
     22 H222       -1.5290   -0.2620    2.1850 H         1 M77    0.0902
     23 H211       -3.8990   -0.1340    2.6850 H         1 M77    0.1182
     24 H212       -3.3650    1.1530    1.5990 H         1 M77    0.1182
     25 H17        -4.4700   -1.2280    0.3960 H         1 M77    0.4483
     26 H161       -5.5000    0.9500   -0.6730 H         1 M77    0.1187
     27 H162       -3.9610    1.5470   -0.0150 H         1 M77    0.1187
     28 H201       -4.4300   -0.5850   -2.1310 H         1 M77    0.0942
     29 H202       -3.3430    0.8230   -2.1860 H         1 M77    0.0942
     30 H151       -1.8960   -1.0200   -1.8580 H         1 M77    0.0842
     31 H152       -2.9930   -1.8060   -0.7260 H         1 M77    0.0842
     32 H6         -0.2320   -2.2070   -0.2510 H         1 M77    0.1670
     33 H7          1.7070   -3.7110   -0.1440 H         1 M77    0.1650
     34 H8          3.9690   -2.8250    0.0470 H         1 M77    0.1590
     35 H11         1.6120    2.1890   -0.0200 H         1 M77    0.1640
     36 H14         5.4790   -0.8370    0.2070 H         1 M77    0.0411
     37 H12         3.9020    3.0030    0.1590 H         1 M77    0.0371
     38 H172       -5.4966   -0.1966    1.1729 H         1 M77    0.4483
@<TRIPOS>BOND
     1    1    2 2
     2    2    3 2
     3    2    4 1
     4    2   11 1
     5    4    5 1
     6    4   10 1
     7    5    6 1
     8    5   21 1
     9    5   22 1
    10    6    7 1
    11    6   23 1
    12    6   24 1
    13    7    8 1
    14    7   25 1
    15    8    9 1
    16    8   26 1
    17    8   27 1
    18    9   10 1
    19    9   28 1
    20    9   29 1
    21   10   30 1
    22   10   31 1
    23   11   12 ar
    24   11   16 ar
    25   12   13 ar
    26   12   32 1
    27   13   14 ar
    28   13   33 1
    29   14   15 ar
    30   14   34 1
    31   15   16 ar
    32   15   18 ar
    33   16   17 ar
    34   17   20 ar
    35   17   35 1
    36   18   19 ar
    37   18   36 1
    38   19   20 ar
    39   20   37 1
    40   38    7 1
@<TRIPOS>SUBSTRUCTURE
     1 M77     1 RESIDUE           4 A     M77     0 ROOT
