REMARK  2 active torsions:
REMARK  status: ('A' for Active; 'I' for Inactive)
REMARK    1  A    between atoms: S1_2  and  N4_4 
REMARK    2  A    between atoms: S1_2  and  C5_11 
ROOT
ATOM      1  O1  M77 X   1      -0.578   1.071  -1.546  0.00  0.00    -0.200 OA
ATOM      2  S1  M77 X   1      -0.487   0.623  -0.201  0.00  0.00     0.261 S 
ATOM      3  O2  M77 X   1      -0.385   1.508   0.907  0.00  0.00    -0.200 OA
ENDROOT
BRANCH   2   4
ATOM      4  N4  M77 X   1      -1.825  -0.314   0.071  0.00  0.00    -0.305 N 
ATOM      5  C22 M77 X   1      -2.271  -0.620   1.472  0.00  0.00     0.163 C 
ATOM      6  C21 M77 X   1      -3.544   0.081   1.677  0.00  0.00     0.252 C 
ATOM      7  N17 M77 X   1      -4.594  -0.283   0.728  0.00  0.00    -0.074 N 
ATOM      8  H17 M77 X   1      -4.470  -1.228   0.396  0.00  0.00     0.277 HD
ATOM      9 2H17 M77 X   1      -5.497  -0.197   1.173  0.00  0.00     0.277 HD
ATOM     10  C16 M77 X   1      -4.498   0.661  -0.355  0.00  0.00     0.234 C 
ATOM     11  C20 M77 X   1      -3.742   0.031  -1.551  0.00  0.00     0.048 C 
ATOM     12  C15 M77 X   1      -2.582  -0.843  -1.029  0.00  0.00     0.137 C 
ENDBRANCH   2   4
BRANCH   2  13
ATOM     13  C5  M77 X   1       0.918  -0.437  -0.123  0.00  0.00     0.090 A 
ATOM     14  C6  M77 X   1       0.760  -1.789  -0.167  0.00  0.00     0.026 A 
ATOM     15  C7  M77 X   1       1.861  -2.643  -0.106  0.00  0.00     0.002 A 
ATOM     16  C8  M77 X   1       3.126  -2.152   0.000  0.00  0.00     0.014 A 
ATOM     17  C9  M77 X   1       3.328  -0.763   0.049  0.00  0.00    -0.007 A 
ATOM     18  C10 M77 X   1       2.207   0.105  -0.020  0.00  0.00     0.000 A 
ATOM     19  C14 M77 X   1       4.609  -0.199   0.157  0.00  0.00     0.128 A 
ATOM     20  C11 M77 X   1       2.436   1.492   0.025  0.00  0.00     0.033 A 
ATOM     21  C12 M77 X   1       3.719   1.940   0.125  0.00  0.00     0.117 A 
ATOM     22  N13 M77 X   1       4.747   1.106   0.199  0.00  0.00    -0.272 NA
ENDBRANCH   2  13
TORSDOF 2
