MODEL 1
REMARK VINA RESULT:    -5.231      0.000      0.000
REMARK INTER + INTRA:          -5.777
REMARK INTER:                  -5.843
REMARK INTRA:                   0.066
REMARK UNBOUND:                 0.066
REMARK  2 active torsions:
REMARK  status: ('A' for Active; 'I' for Inactive)
REMARK    1  A    between atoms: S1_2  and  N4_4 
REMARK    2  A    between atoms: S1_2  and  C5_11 
ROOT
ATOM      1  O1  M77 X   1       7.726   2.839  -0.630  0.00  0.00    -0.200 OA
ATOM      2  S1  M77 X   1       7.772   1.428  -0.478  0.00  0.00     0.261 S 
ATOM      3  O2  M77 X   1       8.651   0.773   0.428  0.00  0.00    -0.200 OA
ENDROOT
BRANCH   2   4
ATOM      4  N4  M77 X   1       6.240   0.950  -0.070  0.00  0.00    -0.305 N 
ATOM      5  C22 M77 X   1       5.869  -0.505  -0.067  0.00  0.00     0.163 C 
ATOM      6  C21 M77 X   1       5.640  -0.884   1.332  0.00  0.00     0.252 C 
ATOM      7  N17 M77 X   1       4.606  -0.103   2.008  0.00  0.00    -0.074 N 
ATOM      8  H17 M77 X   1       3.917   0.230   1.351  0.00  0.00     0.277 HD
ATOM      9 2H17 M77 X   1       4.156  -0.674   2.710  0.00  0.00     0.277 HD
ATOM     10  C16 M77 X   1       5.287   0.995   2.644  0.00  0.00     0.234 C 
ATOM     11  C20 M77 X   1       5.147   2.280   1.791  0.00  0.00     0.048 C 
ATOM     12  C15 M77 X   1       5.245   1.921   0.293  0.00  0.00     0.137 C 
ENDBRANCH   2   4
BRANCH   2  13
ATOM     13  C5  M77 X   1       8.118   0.766  -2.074  0.00  0.00     0.090 A 
ATOM     14  C6  M77 X   1       9.158  -0.096  -2.248  0.00  0.00     0.026 A 
ATOM     15  C7  M77 X   1       9.446  -0.630  -3.504  0.00  0.00     0.002 A 
ATOM     16  C8  M77 X   1       8.699  -0.304  -4.594  0.00  0.00     0.014 A 
ATOM     17  C9  M77 X   1       7.619   0.583  -4.453  0.00  0.00    -0.007 A 
ATOM     18  C10 M77 X   1       7.322   1.119  -3.173  0.00  0.00     0.000 A 
ATOM     19  C14 M77 X   1       6.812   0.954  -5.540  0.00  0.00     0.128 A 
ATOM     20  C11 M77 X   1       6.232   2.000  -3.057  0.00  0.00     0.033 A 
ATOM     21  C12 M77 X   1       5.507   2.293  -4.173  0.00  0.00     0.117 A 
ATOM     22  N13 M77 X   1       5.813   1.786  -5.359  0.00  0.00    -0.272 NA
ENDBRANCH   2  13
TORSDOF 2
ENDMDL
MODEL 2
REMARK VINA RESULT:    -5.105      1.150      1.977
REMARK INTER + INTRA:          -5.636
REMARK INTER:                  -5.578
REMARK INTRA:                  -0.059
REMARK UNBOUND:                 0.066
REMARK  2 active torsions:
REMARK  status: ('A' for Active; 'I' for Inactive)
REMARK    1  A    between atoms: S1_2  and  N4_4 
REMARK    2  A    between atoms: S1_2  and  C5_11 
ROOT
ATOM      1  O1  M77 X   1       8.128   2.994   0.145  0.00  0.00    -0.200 OA
ATOM      2  S1  M77 X   1       8.572   1.695   0.513  0.00  0.00     0.261 S 
ATOM      3  O2  M77 X   1       9.766   1.462   1.247  0.00  0.00    -0.200 OA
ENDROOT
BRANCH   2   4
ATOM      4  N4  M77 X   1       7.344   1.013   1.389  0.00  0.00    -0.305 N 
ATOM      5  C22 M77 X   1       6.139   1.822   1.775  0.00  0.00     0.163 C 
ATOM      6  C21 M77 X   1       5.003   1.283   1.020  0.00  0.00     0.252 C 
ATOM      7  N17 M77 X   1       4.744  -0.137   1.249  0.00  0.00    -0.074 N 
ATOM      8  H17 M77 X   1       5.045  -0.415   2.171  0.00  0.00     0.277 HD
ATOM      9 2H17 M77 X   1       3.756  -0.322   1.146  0.00  0.00     0.277 HD
ATOM     10  C16 M77 X   1       5.477  -0.846   0.232  0.00  0.00     0.234 C 
ATOM     11  C20 M77 X   1       6.804  -1.396   0.811  0.00  0.00     0.048 C 
ATOM     12  C15 M77 X   1       7.410  -0.366   1.788  0.00  0.00     0.137 C 
ENDBRANCH   2   4
BRANCH   2  13
ATOM     13  C5  M77 X   1       8.719   0.777  -0.983  0.00  0.00     0.090 A 
ATOM     14  C6  M77 X   1       9.715  -0.142  -1.128  0.00  0.00     0.026 A 
ATOM     15  C7  M77 X   1       9.847  -0.878  -2.306  0.00  0.00     0.002 A 
ATOM     16  C8  M77 X   1       8.986  -0.700  -3.346  0.00  0.00     0.014 A 
ATOM     17  C9  M77 X   1       7.948   0.239  -3.233  0.00  0.00    -0.007 A 
ATOM     18  C10 M77 X   1       7.811   0.982  -2.031  0.00  0.00     0.000 A 
ATOM     19  C14 M77 X   1       7.030   0.464  -4.271  0.00  0.00     0.128 A 
ATOM     20  C11 M77 X   1       6.759   1.912  -1.941  0.00  0.00     0.033 A 
ATOM     21  C12 M77 X   1       5.918   2.052  -3.003  0.00  0.00     0.117 A 
ATOM     22  N13 M77 X   1       6.076   1.353  -4.118  0.00  0.00    -0.272 NA
ENDBRANCH   2  13
TORSDOF 2
ENDMDL
MODEL 3
REMARK VINA RESULT:    -5.088     16.297     18.461
REMARK INTER + INTRA:          -5.617
REMARK INTER:                  -5.610
REMARK INTRA:                  -0.007
REMARK UNBOUND:                 0.066
REMARK  2 active torsions:
REMARK  status: ('A' for Active; 'I' for Inactive)
REMARK    1  A    between atoms: S1_2  and  N4_4 
REMARK    2  A    between atoms: S1_2  and  C5_11 
ROOT
ATOM      1  O1  M77 X   1     -12.418  -1.235   1.294  0.00  0.00    -0.200 OA
ATOM      2  S1  M77 X   1     -11.087  -1.195   1.789  0.00  0.00     0.261 S 
ATOM      3  O2  M77 X   1     -10.372  -2.358   2.188  0.00  0.00    -0.200 OA
ENDROOT
BRANCH   2   4
ATOM      4  N4  M77 X   1     -10.174  -0.465   0.616  0.00  0.00    -0.305 N 
ATOM      5  C22 M77 X   1      -9.139  -1.245  -0.142  0.00  0.00     0.163 C 
ATOM      6  C21 M77 X   1      -9.617  -1.357  -1.525  0.00  0.00     0.252 C 
ATOM      7  N17 M77 X   1      -9.861  -0.077  -2.186  0.00  0.00    -0.074 N 
ATOM      8  H17 M77 X   1      -9.265   0.645  -1.808  0.00  0.00     0.277 HD
ATOM      9 2H17 M77 X   1      -9.692  -0.170  -3.178  0.00  0.00     0.277 HD
ATOM     10  C16 M77 X   1     -11.249   0.231  -1.960  0.00  0.00     0.234 C 
ATOM     11  C20 M77 X   1     -11.392   1.248  -0.801  0.00  0.00     0.048 C 
ATOM     12  C15 M77 X   1     -10.363   0.924   0.303  0.00  0.00     0.137 C 
ENDBRANCH   2   4
BRANCH   2  13
ATOM     13  C5  M77 X   1     -11.106  -0.119   3.183  0.00  0.00     0.090 A 
ATOM     14  C6  M77 X   1     -12.275   0.442   3.600  0.00  0.00     0.026 A 
ATOM     15  C7  M77 X   1     -12.308   1.297   4.702  0.00  0.00     0.002 A 
ATOM     16  C8  M77 X   1     -11.175   1.597   5.393  0.00  0.00     0.014 A 
ATOM     17  C9  M77 X   1      -9.950   1.038   4.991  0.00  0.00    -0.007 A 
ATOM     18  C10 M77 X   1      -9.919   0.163   3.874  0.00  0.00     0.000 A 
ATOM     19  C14 M77 X   1      -8.750   1.310   5.665  0.00  0.00     0.128 A 
ATOM     20  C11 M77 X   1      -8.682  -0.389   3.496  0.00  0.00     0.033 A 
ATOM     21  C12 M77 X   1      -7.573  -0.066   4.219  0.00  0.00     0.117 A 
ATOM     22  N13 M77 X   1      -7.630   0.763   5.252  0.00  0.00    -0.272 NA
ENDBRANCH   2  13
TORSDOF 2
ENDMDL
MODEL 4
REMARK VINA RESULT:    -5.084      2.125      3.424
REMARK INTER + INTRA:          -5.613
REMARK INTER:                  -5.804
REMARK INTRA:                   0.191
REMARK UNBOUND:                 0.066
REMARK  2 active torsions:
REMARK  status: ('A' for Active; 'I' for Inactive)
REMARK    1  A    between atoms: S1_2  and  N4_4 
REMARK    2  A    between atoms: S1_2  and  C5_11 
ROOT
ATOM      1  O1  M77 X   1       5.920   2.424   1.175  0.00  0.00    -0.200 OA
ATOM      2  S1  M77 X   1       6.973   1.508   0.911  0.00  0.00     0.261 S 
ATOM      3  O2  M77 X   1       8.323   1.747   1.289  0.00  0.00    -0.200 OA
ENDROOT
BRANCH   2   4
ATOM      4  N4  M77 X   1       6.537   0.077   1.620  0.00  0.00    -0.305 N 
ATOM      5  C22 M77 X   1       5.576  -0.852   0.935  0.00  0.00     0.163 C 
ATOM      6  C21 M77 X   1       6.338  -2.046   0.549  0.00  0.00     0.252 C 
ATOM      7  N17 M77 X   1       6.989  -2.733   1.663  0.00  0.00    -0.074 N 
ATOM      8  H17 M77 X   1       6.480  -2.591   2.523  0.00  0.00     0.277 HD
ATOM      9 2H17 M77 X   1       7.047  -3.722   1.463  0.00  0.00     0.277 HD
ATOM     10  C16 M77 X   1       8.316  -2.180   1.752  0.00  0.00     0.234 C 
ATOM     11  C20 M77 X   1       8.382  -1.121   2.879  0.00  0.00     0.048 C 
ATOM     12  C15 M77 X   1       7.075  -0.300   2.897  0.00  0.00     0.137 C 
ENDBRANCH   2   4
BRANCH   2  13
ATOM     13  C5  M77 X   1       6.983   1.248  -0.831  0.00  0.00     0.090 A 
ATOM     14  C6  M77 X   1       5.969   1.731  -1.602  0.00  0.00     0.026 A 
ATOM     15  C7  M77 X   1       5.960   1.533  -2.982  0.00  0.00     0.002 A 
ATOM     16  C8  M77 X   1       6.962   0.852  -3.601  0.00  0.00     0.014 A 
ATOM     17  C9  M77 X   1       8.024   0.338  -2.839  0.00  0.00    -0.007 A 
ATOM     18  C10 M77 X   1       8.035   0.546  -1.435  0.00  0.00     0.000 A 
ATOM     19  C14 M77 X   1       9.086  -0.372  -3.422  0.00  0.00     0.128 A 
ATOM     20  C11 M77 X   1       9.113   0.026  -0.694  0.00  0.00     0.033 A 
ATOM     21  C12 M77 X   1      10.098  -0.644  -1.356  0.00  0.00     0.117 A 
ATOM     22  N13 M77 X   1      10.056  -0.833  -2.667  0.00  0.00    -0.272 NA
ENDBRANCH   2  13
TORSDOF 2
ENDMDL
MODEL 5
REMARK VINA RESULT:    -5.053      1.492      2.962
REMARK INTER + INTRA:          -5.578
REMARK INTER:                  -5.851
REMARK INTRA:                   0.273
REMARK UNBOUND:                 0.066
REMARK  2 active torsions:
REMARK  status: ('A' for Active; 'I' for Inactive)
REMARK    1  A    between atoms: S1_2  and  N4_4 
REMARK    2  A    between atoms: S1_2  and  C5_11 
ROOT
ATOM      1  O1  M77 X   1       8.417   2.955   0.555  0.00  0.00    -0.200 OA
ATOM      2  S1  M77 X   1       8.443   1.571   0.237  0.00  0.00     0.261 S 
ATOM      3  O2  M77 X   1       9.638   0.800   0.222  0.00  0.00    -0.200 OA
ENDROOT
BRANCH   2   4
ATOM      4  N4  M77 X   1       7.421   0.827   1.306  0.00  0.00    -0.305 N 
ATOM      5  C22 M77 X   1       6.426   1.628   2.095  0.00  0.00     0.163 C 
ATOM      6  C21 M77 X   1       5.094   1.263   1.598  0.00  0.00     0.252 C 
ATOM      7  N17 M77 X   1       4.781  -0.161   1.699  0.00  0.00    -0.074 N 
ATOM      8  H17 M77 X   1       5.278  -0.587   2.466  0.00  0.00     0.277 HD
ATOM      9 2H17 M77 X   1       3.786  -0.280   1.833  0.00  0.00     0.277 HD
ATOM     10  C16 M77 X   1       5.172  -0.745   0.442  0.00  0.00     0.234 C 
ATOM     11  C20 M77 X   1       6.549  -1.440   0.579  0.00  0.00     0.048 C 
ATOM     12  C15 M77 X   1       7.467  -0.597   1.490  0.00  0.00     0.137 C 
ENDBRANCH   2   4
BRANCH   2  13
ATOM     13  C5  M77 X   1       7.729   1.414  -1.365  0.00  0.00     0.090 A 
ATOM     14  C6  M77 X   1       6.518   1.977  -1.634  0.00  0.00     0.026 A 
ATOM     15  C7  M77 X   1       5.937   1.863  -2.897  0.00  0.00     0.002 A 
ATOM     16  C8  M77 X   1       6.562   1.185  -3.898  0.00  0.00     0.014 A 
ATOM     17  C9  M77 X   1       7.811   0.591  -3.658  0.00  0.00    -0.007 A 
ATOM     18  C10 M77 X   1       8.404   0.714  -2.375  0.00  0.00     0.000 A 
ATOM     19  C14 M77 X   1       8.503  -0.120  -4.653  0.00  0.00     0.128 A 
ATOM     20  C11 M77 X   1       9.659   0.115  -2.161  0.00  0.00     0.033 A 
ATOM     21  C12 M77 X   1      10.251  -0.548  -3.194  0.00  0.00     0.117 A 
ATOM     22  N13 M77 X   1       9.669  -0.658  -4.380  0.00  0.00    -0.272 NA
ENDBRANCH   2  13
TORSDOF 2
ENDMDL
MODEL 6
REMARK VINA RESULT:    -5.039      1.677      2.794
REMARK INTER + INTRA:          -5.563
REMARK INTER:                  -5.625
REMARK INTRA:                   0.062
REMARK UNBOUND:                 0.066
REMARK  2 active torsions:
REMARK  status: ('A' for Active; 'I' for Inactive)
REMARK    1  A    between atoms: S1_2  and  N4_4 
REMARK    2  A    between atoms: S1_2  and  C5_11 
ROOT
ATOM      1  O1  M77 X   1       8.530   0.703   0.569  0.00  0.00    -0.200 OA
ATOM      2  S1  M77 X   1       7.272   0.178   0.166  0.00  0.00     0.261 S 
ATOM      3  O2  M77 X   1       6.951  -1.205   0.234  0.00  0.00    -0.200 OA
ENDROOT
BRANCH   2   4
ATOM      4  N4  M77 X   1       6.127   0.968   1.064  0.00  0.00    -0.305 N 
ATOM      5  C22 M77 X   1       4.900   0.247   1.542  0.00  0.00     0.163 C 
ATOM      6  C21 M77 X   1       5.009   0.141   3.002  0.00  0.00     0.252 C 
ATOM      7  N17 M77 X   1       5.136   1.423   3.693  0.00  0.00    -0.074 N 
ATOM      8  H17 M77 X   1       4.687   2.161   3.171  0.00  0.00     0.277 HD
ATOM      9 2H17 M77 X   1       4.718   1.355   4.610  0.00  0.00     0.277 HD
ATOM     10  C16 M77 X   1       6.549   1.668   3.823  0.00  0.00     0.234 C 
ATOM     11  C20 M77 X   1       7.025   2.656   2.729  0.00  0.00     0.048 C 
ATOM     12  C15 M77 X   1       6.293   2.354   1.404  0.00  0.00     0.137 C 
ENDBRANCH   2   4
BRANCH   2  13
ATOM     13  C5  M77 X   1       7.045   0.661  -1.513  0.00  0.00     0.090 A 
ATOM     14  C6  M77 X   1       5.982   1.436  -1.865  0.00  0.00     0.026 A 
ATOM     15  C7  M77 X   1       5.787   1.828  -3.190  0.00  0.00     0.002 A 
ATOM     16  C8  M77 X   1       6.651   1.447  -4.170  0.00  0.00     0.014 A 
ATOM     17  C9  M77 X   1       7.758   0.647  -3.844  0.00  0.00    -0.007 A 
ATOM     18  C10 M77 X   1       7.960   0.255  -2.495  0.00  0.00     0.000 A 
ATOM     19  C14 M77 X   1       8.684   0.224  -4.812  0.00  0.00     0.128 A 
ATOM     20  C11 M77 X   1       9.079  -0.541  -2.193  0.00  0.00     0.033 A 
ATOM     21  C12 M77 X   1       9.922  -0.894  -3.204  0.00  0.00     0.117 A 
ATOM     22  N13 M77 X   1       9.704  -0.523  -4.458  0.00  0.00    -0.272 NA
ENDBRANCH   2  13
TORSDOF 2
ENDMDL
MODEL 7
REMARK VINA RESULT:    -5.024      1.850      2.883
REMARK INTER + INTRA:          -5.545
REMARK INTER:                  -5.588
REMARK INTRA:                   0.043
REMARK UNBOUND:                 0.066
REMARK  2 active torsions:
REMARK  status: ('A' for Active; 'I' for Inactive)
REMARK    1  A    between atoms: S1_2  and  N4_4 
REMARK    2  A    between atoms: S1_2  and  C5_11 
ROOT
ATOM      1  O1  M77 X   1       8.403   2.180  -0.327  0.00  0.00    -0.200 OA
ATOM      2  S1  M77 X   1       8.142   0.806  -0.578  0.00  0.00     0.261 S 
ATOM      3  O2  M77 X   1       8.841  -0.247   0.071  0.00  0.00    -0.200 OA
ENDROOT
BRANCH   2   4
ATOM      4  N4  M77 X   1       6.535   0.569  -0.257  0.00  0.00    -0.305 N 
ATOM      5  C22 M77 X   1       5.989  -0.819  -0.080  0.00  0.00     0.163 C 
ATOM      6  C21 M77 X   1       5.604  -0.949   1.331  0.00  0.00     0.252 C 
ATOM      7  N17 M77 X   1       4.623   0.036   1.782  0.00  0.00    -0.074 N 
ATOM      8  H17 M77 X   1       4.035   0.337   1.020  0.00  0.00     0.277 HD
ATOM      9 2H17 M77 X   1       4.051  -0.367   2.512  0.00  0.00     0.277 HD
ATOM     10  C16 M77 X   1       5.381   1.138   2.316  0.00  0.00     0.234 C 
ATOM     11  C20 M77 X   1       5.468   2.283   1.276  0.00  0.00     0.048 C 
ATOM     12  C15 M77 X   1       5.642   1.687  -0.137  0.00  0.00     0.137 C 
ENDBRANCH   2   4
BRANCH   2  13
ATOM     13  C5  M77 X   1       8.371   0.564  -2.308  0.00  0.00     0.090 A 
ATOM     14  C6  M77 X   1       7.299   0.563  -3.148  0.00  0.00     0.026 A 
ATOM     15  C7  M77 X   1       7.462   0.373  -4.520  0.00  0.00     0.002 A 
ATOM     16  C8  M77 X   1       8.695   0.181  -5.061  0.00  0.00     0.014 A 
ATOM     17  C9  M77 X   1       9.825   0.174  -4.226  0.00  0.00    -0.007 A 
ATOM     18  C10 M77 X   1       9.658   0.375  -2.831  0.00  0.00     0.000 A 
ATOM     19  C14 M77 X   1      11.122  -0.018  -4.727  0.00  0.00     0.128 A 
ATOM     20  C11 M77 X   1      10.805   0.370  -2.017  0.00  0.00     0.033 A 
ATOM     21  C12 M77 X   1      12.021   0.181  -2.601  0.00  0.00     0.117 A 
ATOM     22  N13 M77 X   1      12.147  -0.016  -3.907  0.00  0.00    -0.272 NA
ENDBRANCH   2  13
TORSDOF 2
ENDMDL
MODEL 8
REMARK VINA RESULT:    -4.910      1.613      2.023
REMARK INTER + INTRA:          -5.418
REMARK INTER:                  -5.937
REMARK INTRA:                   0.518
REMARK UNBOUND:                 0.066
REMARK  2 active torsions:
REMARK  status: ('A' for Active; 'I' for Inactive)
REMARK    1  A    between atoms: S1_2  and  N4_4 
REMARK    2  A    between atoms: S1_2  and  C5_11 
ROOT
ATOM      1  O1  M77 X   1       5.658   2.052  -0.306  0.00  0.00    -0.200 OA
ATOM      2  S1  M77 X   1       6.907   1.473   0.046  0.00  0.00     0.261 S 
ATOM      3  O2  M77 X   1       7.993   2.227   0.568  0.00  0.00    -0.200 OA
ENDROOT
BRANCH   2   4
ATOM      4  N4  M77 X   1       6.577   0.295   1.162  0.00  0.00    -0.305 N 
ATOM      5  C22 M77 X   1       5.537  -0.752   0.883  0.00  0.00     0.163 C 
ATOM      6  C21 M77 X   1       6.245  -2.028   0.732  0.00  0.00     0.252 C 
ATOM      7  N17 M77 X   1       7.045  -2.416   1.891  0.00  0.00    -0.074 N 
ATOM      8  H17 M77 X   1       6.658  -2.037   2.742  0.00  0.00     0.277 HD
ATOM      9 2H17 M77 X   1       7.080  -3.424   1.956  0.00  0.00     0.277 HD
ATOM     10  C16 M77 X   1       8.369  -1.902   1.653  0.00  0.00     0.234 C 
ATOM     11  C20 M77 X   1       8.583  -0.585   2.438  0.00  0.00     0.048 C 
ATOM     12  C15 M77 X   1       7.287   0.252   2.410  0.00  0.00     0.137 C 
ENDBRANCH   2   4
BRANCH   2  13
ATOM     13  C5  M77 X   1       7.508   0.669  -1.402  0.00  0.00     0.090 A 
ATOM     14  C6  M77 X   1       8.472  -0.288  -1.304  0.00  0.00     0.026 A 
ATOM     15  C7  M77 X   1       8.960  -0.935  -2.439  0.00  0.00     0.002 A 
ATOM     16  C8  M77 X   1       8.489  -0.629  -3.679  0.00  0.00     0.014 A 
ATOM     17  C9  M77 X   1       7.496   0.354  -3.819  0.00  0.00    -0.007 A 
ATOM     18  C10 M77 X   1       6.995   1.006  -2.662  0.00  0.00     0.000 A 
ATOM     19  C14 M77 X   1       6.971   0.711  -5.071  0.00  0.00     0.128 A 
ATOM     20  C11 M77 X   1       5.996   1.982  -2.828  0.00  0.00     0.033 A 
ATOM     21  C12 M77 X   1       5.549   2.253  -4.087  0.00  0.00     0.117 A 
ATOM     22  N13 M77 X   1       6.043   1.636  -5.152  0.00  0.00    -0.272 NA
ENDBRANCH   2  13
TORSDOF 2
ENDMDL
MODEL 9
REMARK VINA RESULT:    -4.865     16.711     18.978
REMARK INTER + INTRA:          -5.368
REMARK INTER:                  -5.324
REMARK INTRA:                  -0.043
REMARK UNBOUND:                 0.066
REMARK  2 active torsions:
REMARK  status: ('A' for Active; 'I' for Inactive)
REMARK    1  A    between atoms: S1_2  and  N4_4 
REMARK    2  A    between atoms: S1_2  and  C5_11 
ROOT
ATOM      1  O1  M77 X   1     -10.295  -0.477   0.934  0.00  0.00    -0.200 OA
ATOM      2  S1  M77 X   1     -11.533  -0.655   1.608  0.00  0.00     0.261 S 
ATOM      3  O2  M77 X   1     -12.787  -0.310   1.033  0.00  0.00    -0.200 OA
ENDROOT
BRANCH   2   4
ATOM      4  N4  M77 X   1     -11.625  -2.261   2.001  0.00  0.00    -0.305 N 
ATOM      5  C22 M77 X   1     -10.587  -3.228   1.508  0.00  0.00     0.163 C 
ATOM      6  C21 M77 X   1      -9.825  -3.671   2.682  0.00  0.00     0.252 C 
ATOM      7  N17 M77 X   1     -10.633  -4.295   3.727  0.00  0.00    -0.074 N 
ATOM      8  H17 M77 X   1     -11.452  -4.735   3.337  0.00  0.00     0.277 HD
ATOM      9 2H17 M77 X   1     -10.079  -4.984   4.217  0.00  0.00     0.277 HD
ATOM     10  C16 M77 X   1     -10.998  -3.237   4.634  0.00  0.00     0.234 C 
ATOM     11  C20 M77 X   1     -12.443  -2.760   4.348  0.00  0.00     0.048 C 
ATOM     12  C15 M77 X   1     -12.694  -2.751   2.825  0.00  0.00     0.137 C 
ENDBRANCH   2   4
BRANCH   2  13
ATOM     13  C5  M77 X   1     -11.412   0.247   3.116  0.00  0.00     0.090 A 
ATOM     14  C6  M77 X   1     -12.512   0.854   3.642  0.00  0.00     0.026 A 
ATOM     15  C7  M77 X   1     -12.434   1.573   4.835  0.00  0.00     0.002 A 
ATOM     16  C8  M77 X   1     -11.258   1.689   5.510  0.00  0.00     0.014 A 
ATOM     17  C9  M77 X   1     -10.102   1.077   4.998  0.00  0.00    -0.007 A 
ATOM     18  C10 M77 X   1     -10.184   0.341   3.787  0.00  0.00     0.000 A 
ATOM     19  C14 M77 X   1      -8.862   1.162   5.650  0.00  0.00     0.128 A 
ATOM     20  C11 M77 X   1      -9.014  -0.268   3.298  0.00  0.00     0.033 A 
ATOM     21  C12 M77 X   1      -7.860  -0.130   4.009  0.00  0.00     0.117 A 
ATOM     22  N13 M77 X   1      -7.810   0.573   5.132  0.00  0.00    -0.272 NA
ENDBRANCH   2  13
TORSDOF 2
ENDMDL
